src/ThreePhaseSEPluginMP/res/testData/case14_3ph.m
function mpc = case14_3ph
% case14_3ph - 14-bus three-phase test case (visible voltage unbalance),
% extended from the classic Matpower 14-bus topology for
% ThreePhaseSEPluginMP.

mpc.version = '2';
mpc.baseMVA = 100;

% Simplified single-phase bus table (illustrative; not used by the converter).
% bus_i type Pd Qd Gs Bs area Vm Va baseKV zone Vmax Vmin
mpc.bus = [
    1   3  0     0     0  0  1  1.06  0.0  138  1  1.10  0.90;
    2   2  21.7  12.7  0  0  1  1.045 0.0  138  1  1.10  0.90;
    3   2  94.2  19.0  0  0  1  1.01  0.0  138  1  1.10  0.90;
    4   1  47.8  -3.9  0  0  1  1.00  0.0  138  1  1.10  0.90;
    5   1  7.6   1.6   0  0  1  1.00  0.0  138  1  1.10  0.90;
    6   2  11.2  7.5   0  0  1  1.00  0.0  138  1  1.10  0.90;
    7   1  0     0     0  0  1  1.00  0.0  138  1  1.10  0.90;
    8   2  0     0     0  0  1  1.00  0.0  138  1  1.10  0.90;
    9   1  29.5  16.6  0  0  1  1.00  0.0  138  1  1.10  0.90;
    10  1  9.0   5.8   0  0  1  1.00  0.0  138  1  1.10  0.90;
    11  1  3.5   1.8   0  0  1  1.00  0.0  138  1  1.10  0.90;
    12  1  6.1   1.6   0  0  1  1.00  0.0  138  1  1.10  0.90;
    13  1  13.5  5.8   0  0  1  1.00  0.0  138  1  1.10  0.90;
    14  1  14.9  5.0   0  0  1  1.00  0.0  138  1  1.10  0.90;
];

% Three-phase extension used by ThreePhaseSEPluginMP.
% Columns: busId Vm_A Va_A Vm_B Va_B Vm_C Va_C  (Vm in p.u., Va in degrees)
mpc.bus3ph = [
      1   0.97855     0.6421    1.00323  -121.8311    1.01868   118.0462;
      2   1.02872    -1.2946    0.99926  -120.8266    0.98727   122.2201;
      3   0.97947    -3.6518    0.96009  -121.9168    1.04113   122.4343;
      4   1.02053    -2.2160    0.95347  -122.6804    1.00962   121.2136;
      5   0.97984    -5.3735    0.97034  -116.1760    0.96749   119.2294;
      6   1.04923    -1.7644    0.97948  -118.5049    1.01468   116.8923;
      7   1.01713    -6.8320    0.99704  -117.0016    0.97631   120.1103;
      8   0.98551    -3.0105    0.98073  -119.9962    0.97964   116.8194;
      9   1.03545    -8.0320    0.94806  -118.0773    0.98526   116.9110;
     10   1.01206    -4.4878    0.94837  -119.7212    1.00324   119.6413;
     11   1.00879    -8.4309    0.97933  -120.2039    1.01359   117.8901;
     12   1.03924    -8.5402    1.02451  -118.3722    0.96598   120.5716;
     13   0.97153    -7.2613    1.00344  -121.2201    1.04495   120.5552;
     14   1.04513    -9.0677    0.96372  -118.9727    0.98721   119.7541;
];

end
